7
Lattice="16.0 0.0 0.0 0.0 16.0 0.0 0.0 0.0 16.0" Properties=species:S:1:pos:R:3:forces:R:3 energy=-5.7276716119898134 dipole="-0.008541060123704647 -0.005403574109746883 0.0011494601489372039" pbc="F F F"
Na       6.50683176       6.70488809       6.83834622      -0.00633964      -0.00782692       0.00878338
Na       9.95877446       7.05786118       6.97545234       0.01232567       0.00202201      -0.00911983
Na       8.03395426       9.34574483       5.45747051      -0.00447885       0.00457526      -0.01236679
Na       7.82259838       9.31815448       8.85572971      -0.00866509      -0.00814043       0.01263242
Na       8.32326887       5.90640221       9.79861854      -0.00393876       0.00040108      -0.00070986
Na      10.82520659       8.14587945      10.01796238      -0.00268222      -0.00288354       0.00709657
Na       5.24817006       7.22493668       9.91264694       0.01076427       0.01175923      -0.00777315
